LAMMPS (29 Oct 2020)
variable    T equal 4050   # temperature in K
variable    P equal 400000.00 # P in bar
variable    V equal vol
variable    dt equal 0.001  # ps

variable    NSWeq equal 10000 # equil run step

# calculate fparam for deepmd potential
variable    kBeV equal 8.617333262e-5    # eV/K, Boltzmann
variable    TeV equal  4050*8.617333262e-05

# convert from LAMMPS metal units to SI
variable    kB equal 1.3806504e-23       # [J/K] Boltzmann
variable    ev2j equal 1.60218e-19
variable    A2m equal 1.0e-10
variable    ps2s equal 1.0e-12
variable    convert equal 1.60218e-19*1.60218e-19/1e-12/1e-10

units           metal
boundary        p p p
atom_style      atomic

neighbor        2.0 bin
neigh_modify    every 10 delay 0 check no

read_data       conf.lmp
Reading data file ...
  triclinic box = (0.0000000 0.0000000 0.0000000) to (11.509289 11.509289 11.509289) with tilt (0.0000000 0.0000000 0.0000000)
  reading atoms ...
  160 atoms
mass            1 24.305
mass            2 28.085
mass            3 15.999
#mass            4 2.0156
#read_restart    poly.restart.1140000
pair_style      deepmd /u/project/ESS/lstixrud/jd848/pv_hf_copy/pvh/m12/v3/pv.pb fparam 0.349001997111
pair_coeff

velocity        all create 100 23456789
fix             1 all npt temp 10 10 0.04 iso $P $P 0.4
fix             1 all npt temp 10 10 0.04 iso 400000 $P 0.4
fix             1 all npt temp 10 10 0.04 iso 400000 400000 0.4
timestep        0.001
#thermo          500
#thermo_style    custom step pe ke etotal temp press vol pxx pyy pzz pxy pyz pxz
#dump            2 all custom 500 npt.dump id type x y z
#restart 10000  poly.restart
run             200
  update every 10 steps, delay 0 steps, check no
Step Temp E_pair E_mol TotEng Press Volume
0          100   -1079.6816            0   -1077.6263    194435.27    1524.5636
Loop time of 5.4219 on 36 procs for 200 steps with 160 atoms

unfix           1

velocity        all create $T 23456789
velocity        all create 4050 23456789
fix             1 all npt temp $T $T 0.04 iso $P $P 0.4
fix             1 all npt temp 4050 $T 0.04 iso $P $P 0.4
fix             1 all npt temp 4050 4050 0.04 iso $P $P 0.4
fix             1 all npt temp 4050 4050 0.04 iso 400000 $P 0.4
fix             1 all npt temp 4050 4050 0.04 iso 400000 400000 0.4
timestep        0.001
thermo          10
thermo_style    custom step pe ke etotal temp press vol pxx pyy pzz pxy pyz pxz
dump            2 all custom 500 npt.dump id type x y z
restart 10000  poly.restart
run             10000
Step PotEng KinEng TotEng Temp Press Volume Pxx Pyy Pzz Pxy Pyz Pxz
200   -1119.2728     83.23707   -1036.0357         4050    469808.55     1286.727    497642.59     418570.6    493212.47    14588.174    5169.0974   -36208.728
Averages over the last 501 of 1001 rows, steps 5200 to 10200:
PotEng KinEng TotEng Temp Press Volume Pxx Pyy Pzz Pxy Pyz Pxz
-1046.68 82.8265 -963.856 4030.02 399527 1383.15 400504 397121 400956 3552.75 4689.86 -4908.57
Loop time of 272.941 on 36 procs for 10000 steps with 160 atoms

unfix           1

Please see the log.cite file for references relevant to this simulation
