LAMMPS (29 Oct 2020)
variable    T equal 4050   # temperature in K
variable    P equal 400000.00 # P in bar
variable    V equal vol
variable    dt equal 0.001  # ps

variable    NSWeq equal 10000 # equil run step

# calculate fparam for deepmd potential
variable    kBeV equal 8.617333262e-5    # eV/K, Boltzmann
variable    TeV equal  4050*8.617333262e-05

# convert from LAMMPS metal units to SI
variable    kB equal 1.3806504e-23       # [J/K] Boltzmann
variable    ev2j equal 1.60218e-19
variable    A2m equal 1.0e-10
variable    ps2s equal 1.0e-12
variable    convert equal 1.60218e-19*1.60218e-19/1e-12/1e-10

units           metal
boundary        p p p
atom_style      atomic

neighbor        2.0 bin
neigh_modify    every 10 delay 0 check no

read_data       conf.lmp
Reading data file ...
  triclinic box = (0.0000000 0.0000000 0.0000000) to (11.150434 11.150434 11.150434) with tilt (0.0000000 0.0000000 0.0000000)
  reading atoms ...
  160 atoms
mass            1 24.305
mass            2 28.085
mass            3 15.999
#mass            4 2.0156
#read_restart    poly.restart.1140000
pair_style      deepmd /u/project/ESS/lstixrud/jd848/pv_hf_copy/pvh/m12/v3/pv.pb fparam 0.349001997111
pair_coeff

velocity        all create $T 23456789
velocity        all create 4050 23456789
fix             1 all nvt temp $T $T 0.04
fix             1 all nvt temp 4050 $T 0.04
fix             1 all nvt temp 4050 4050 0.04
timestep        0.001
thermo          1
thermo_style    custom step pe ke etotal temp press vol pxx pyy pzz pxy pyz pxz
dump            2 all custom 500 npt.dump id type x y z
restart 10000  poly.restart
run             10000
  update every 10 steps, delay 0 steps, check no
Step PotEng KinEng TotEng Temp Press Volume Pxx Pyy Pzz Pxy Pyz Pxz
0   -1043.9214     83.23707    -960.6843         4050    411071.62    1386.3579    426418.57    389869.16    416927.13    5500.3736    76215.317   -22706.832
Averages over the last 5001 of 10001 rows, steps 5000 to 10000:
PotEng KinEng TotEng Temp Press Volume Pxx Pyy Pzz Pxy Pyz Pxz
-1042.56 83.6919 -958.869 4072.13 405065 1386.36 406032 397471 411690 -3513.32 -2462.47 -589.768
Loop time of 155.759 on 2 procs for 10000 steps with 160 atoms

unfix           1

Please see the log.cite file for references relevant to this simulation
